CRYSTAL
PRIMVEC 1
      0.0000000000       2.7271352628       2.7271352628
      2.7271352628       0.0000000000       2.7271352628
      2.7271352628       2.7271352628       0.0000000000
PRIMCOORD 1
2 1
14       0.6817838157       0.6817838157       0.6817838157
14      -0.6817838157      -0.6817838157      -0.6817838157
